Version 4.1
SHEET 1 1116 680
WIRE -176 -96 -336 -96
WIRE 176 -96 -176 -96
WIRE -336 -80 -336 -96
WIRE 752 -16 400 -16
WIRE 80 0 48 0
WIRE 176 0 176 -96
WIRE 176 0 144 0
WIRE 208 0 176 0
WIRE 304 0 272 0
WIRE -176 16 -176 -96
WIRE 48 64 48 0
WIRE 48 64 0 64
WIRE 144 64 48 64
WIRE 304 64 304 0
WIRE 304 64 208 64
WIRE 400 64 400 -16
WIRE 400 64 304 64
WIRE 464 64 400 64
WIRE 592 64 544 64
WIRE 704 64 592 64
WIRE 768 64 704 64
WIRE 864 64 768 64
WIRE 960 64 864 64
WIRE 976 64 960 64
WIRE 48 128 48 64
WIRE 80 128 48 128
WIRE 176 128 144 128
WIRE 208 128 176 128
WIRE 304 128 304 64
WIRE 304 128 272 128
WIRE 704 128 704 64
WIRE 768 128 768 64
WIRE 864 144 864 64
WIRE -176 208 -176 96
WIRE -176 208 -528 208
WIRE 176 208 176 128
WIRE 176 208 -176 208
WIRE 0 256 0 64
WIRE 304 256 0 256
WIRE 592 256 592 144
WIRE 592 256 304 256
WIRE 704 256 704 192
WIRE 704 256 592 256
WIRE 768 256 768 192
WIRE 768 256 704 256
WIRE 816 256 768 256
WIRE 816 320 816 256
WIRE -528 336 -528 208
WIRE -336 384 -336 0
WIRE -208 384 -336 384
WIRE 864 384 864 224
WIRE 864 384 -96 384
WIRE 944 384 864 384
WIRE -528 448 -528 416
WIRE -208 448 -528 448
WIRE 304 448 304 256
WIRE 304 448 -96 448
FLAG 960 64 .measure
IOPIN 960 64 Out
FLAG 944 384 .measure2
FLAG 816 320 0
DATAFLAG 400 64 ""
SYMBOL diode 80 16 R270
WINDOW 0 32 32 VTop 2
WINDOW 3 0 32 VBottom 2
SYMATTR InstName D1
SYMATTR Value 1N5819
SYMATTR Description Diode
SYMATTR Type diode
SYMBOL diode 208 16 R270
WINDOW 0 32 32 VTop 2
WINDOW 3 0 32 VBottom 2
SYMATTR InstName D2
SYMATTR Value 1N5819
SYMATTR Description Diode
SYMATTR Type diode
SYMBOL diode 80 144 R270
WINDOW 0 32 32 VTop 2
WINDOW 3 0 32 VBottom 2
SYMATTR InstName D3
SYMATTR Value 1N5819
SYMATTR Description Diode
SYMATTR Type diode
SYMBOL diode 208 144 R270
WINDOW 0 32 32 VTop 2
WINDOW 3 0 32 VBottom 2
SYMATTR InstName D4
SYMATTR Value 1N5819
SYMATTR Description Diode
SYMATTR Type diode
SYMBOL cap 208 48 R90
WINDOW 0 0 32 VBottom 2
WINDOW 3 32 32 VTop 2
SYMATTR InstName C1
SYMATTR Value 220”f
SYMATTR SpiceLine V=60v
SYMBOL voltage -176 0 R0
WINDOW 3 24 152 Left 2
WINDOW 123 24 124 Left 2
WINDOW 39 0 0 Left 0
SYMATTR InstName V1
SYMATTR Value SINE(0 24 50)
SYMATTR Value2 AC 24v
SYMBOL res 560 48 R90
WINDOW 0 0 56 VBottom 2
WINDOW 3 32 56 VTop 2
SYMATTR InstName R1
SYMATTR Value 10k
SYMBOL res 576 48 R0
SYMATTR InstName R2
SYMATTR Value 2.7k
SYMBOL zener 720 192 R180
WINDOW 0 24 64 Left 2
WINDOW 3 24 0 Left 2
SYMATTR InstName D5
SYMATTR Value UMZ5_1N
SYMBOL Contrib\\Wurth\\Optoelectronics\\Optocoupler\\WL-OCPT\\WL-OCPT_Series_817 -160 416 R0
SYMATTR InstName Q1
SYMBOL res -352 -96 R0
SYMATTR InstName R3
SYMATTR Value 500k
SYMBOL res -544 320 R0
SYMATTR InstName R4
SYMATTR Value 1k
SYMBOL res 848 128 R0
SYMATTR InstName R5
SYMATTR Value 1k
SYMBOL cap 752 128 R0
SYMATTR InstName C2
SYMATTR Value 22”f
TEXT 712 -32 Left 2 ;24v
TEXT 720 48 Left 2 ;5v
TEXT -544 488 Left 2 !.tran 50s
